201910_Siviplast_1B_c.fds
Generated by PyroSim - Version 2019.1.0515
7-nov-2019 11.24.54

&HEAD CHID='201910_Siviplast_1B_c'/
&TIME T_END=1260.0/
&DUMP RENDER_FILE='201910_Siviplast_1B_c.ge1', COLUMN_DUMP_LIMIT=.TRUE., DT_PL3D=60.0, DT_RESTART=300.0, DT_SL3D=0.25, WRITE_XYZ=.TRUE., PLOT3D_QUANTITY(1:3)='INTEGRATED INTENSITY','TEMPERATURE','VISIBILITY'/

&MESH ID='1', IJK=60,52,104, XB=326.1,332.1,-26.3,-21.1,-0.1,10.3/
&MESH ID='2', IJK=101,56,52, XB=326.1,346.3,-37.5,-26.3,-0.1,10.3/
&MESH ID='3', IJK=71,26,52, XB=332.1,346.3,-26.3,-21.1,-0.1,10.3/
&MESH ID='4', IJK=101,60,52, XB=326.1,346.3,-49.5,-37.5,-0.1,10.3/
&MESH ID='5', IJK=101,60,52, XB=326.1,346.3,-61.5,-49.5,-0.1,10.3/
&MESH ID='6', IJK=84,101,26, XB=346.3,379.9,-61.5,-21.1,-0.1,10.3/
&MESH ID='7', IJK=69,101,26, XB=379.9,407.5,-61.5,-21.1,-0.1,10.3/


&REAC ID='polistirene',
      FUEL='REAC_FUEL',
      FORMULA='C8H8',
      AUTO_IGNITION_TEMPERATURE=0.0,
      SOOT_H_FRACTION=0.0,
      CO_YIELD=0.06,
      SOOT_YIELD=0.16/

&CTRL ID='invert', FUNCTION_TYPE='ALL', LATCH=.FALSE., INITIAL_STATE=.TRUE., INPUT_ID='TIMER->OUT'/
&DEVC ID='1', QUANTITY='TEMPERATURE', XYZ=326.2,-41.1,0.0/
&DEVC ID='2', QUANTITY='TEMPERATURE', XYZ=326.2,-41.1,6.11/
&DEVC ID='3', QUANTITY='TEMPERATURE', XYZ=326.2,-41.1,8.83/
&DEVC ID='4', QUANTITY='TEMPERATURE', XYZ=326.2,-39.1,7.47/
&DEVC ID='5', QUANTITY='TEMPERATURE', XYZ=326.2,-39.1,8.83/
&DEVC ID='6', QUANTITY='TEMPERATURE', XYZ=326.2,-37.1,6.11/
&DEVC ID='7', QUANTITY='TEMPERATURE', XYZ=326.2,-37.1,8.83/
&DEVC ID='8', QUANTITY='TEMPERATURE', XYZ=326.2,-35.1,7.47/
&DEVC ID='9', QUANTITY='TEMPERATURE', XYZ=326.2,-35.1,8.83/
&DEVC ID='10', QUANTITY='TEMPERATURE', XYZ=326.2,-33.1,6.11/
&DEVC ID='11', QUANTITY='TEMPERATURE', XYZ=326.2,-33.1,8.83/
&DEVC ID='12', QUANTITY='TEMPERATURE', XYZ=326.2,-31.1,7.47/
&DEVC ID='13', QUANTITY='TEMPERATURE', XYZ=326.2,-31.1,8.83/
&DEVC ID='14', QUANTITY='TEMPERATURE', XYZ=326.2,-29.1,6.11/
&DEVC ID='15', QUANTITY='TEMPERATURE', XYZ=326.2,-29.1,8.83/
&DEVC ID='16', QUANTITY='TEMPERATURE', XYZ=326.2,-27.1,7.47/
&DEVC ID='17', QUANTITY='TEMPERATURE', XYZ=326.2,-27.1,8.83/
&DEVC ID='18', QUANTITY='TEMPERATURE', XYZ=326.2,-25.1,6.11/
&DEVC ID='19', QUANTITY='TEMPERATURE', XYZ=326.2,-25.1,8.83/
&DEVC ID='20', QUANTITY='TEMPERATURE', XYZ=326.2,-23.1,7.47/
! ... 4 like lines cut
&DEVC ID='Line_1 mid', QUANTITY='TEMPERATURE', XYZ=326.2,-41.1,3.06/
&DEVC ID='Line_1 extra_10', QUANTITY='TEMPERATURE', XYZ=326.2,-41.1,0.2/
&DEVC ID='Line_1 extra_20', QUANTITY='TEMPERATURE', XYZ=326.2,-41.1,3.26/
&DEVC ID='Line_1 extra_11', QUANTITY='TEMPERATURE', XYZ=326.2,-41.1,0.41/
&DEVC ID='Line_1 extra_21', QUANTITY='TEMPERATURE', XYZ=326.2,-41.1,3.47/
&DEVC ID='Line_1 extra_12', QUANTITY='TEMPERATURE', XYZ=326.2,-41.1,0.61/
&DEVC ID='Line_1 extra_22', QUANTITY='TEMPERATURE', XYZ=326.2,-41.1,3.67/
&DEVC ID='Line_1 extra_13', QUANTITY='TEMPERATURE', XYZ=326.2,-41.1,0.82/
&DEVC ID='Line_1 extra_23', QUANTITY='TEMPERATURE', XYZ=326.2,-41.1,3.87/
&DEVC ID='Line_1 extra_14', QUANTITY='TEMPERATURE', XYZ=326.2,-41.1,1.02/
&DEVC ID='Line_1 extra_24', QUANTITY='TEMPERATURE', XYZ=326.2,-41.1,4.08/
&DEVC ID='Line_1 extra_15', QUANTITY='TEMPERATURE', XYZ=326.2,-41.1,1.22/
&DEVC ID='Line_1 extra_25', QUANTITY='TEMPERATURE', XYZ=326.2,-41.1,4.28/
&DEVC ID='Line_1 extra_16', QUANTITY='TEMPERATURE', XYZ=326.2,-41.1,1.43/
&DEVC ID='Line_1 extra_26', QUANTITY='TEMPERATURE', XYZ=326.2,-41.1,4.48/
&DEVC ID='Line_1 extra_17', QUANTITY='TEMPERATURE', XYZ=326.2,-41.1,1.63/
&DEVC ID='Line_1 extra_27', QUANTITY='TEMPERATURE', XYZ=326.2,-41.1,4.69/
&DEVC ID='Line_1 extra_18', QUANTITY='TEMPERATURE', XYZ=326.2,-41.1,1.84/
&DEVC ID='Line_1 extra_28', QUANTITY='TEMPERATURE', XYZ=326.2,-41.1,4.89/
&DEVC ID='Line_1 extra_19', QUANTITY='TEMPERATURE', XYZ=326.2,-41.1,2.04/
&DEVC ID='Line_1 extra_29', QUANTITY='TEMPERATURE', XYZ=326.2,-41.1,5.09/
! ... 8 like lines cut
&DEVC ID='TIMER->OUT', QUANTITY='TIME', XYZ=326.1,-26.3,-0.1, SETPOINT=60.0/

&MATL ID='STEEL',
      FYI='Drysdale, Intro to Fire Dynamics - ATF NIST Multi-Floor Validation',
      SPECIFIC_HEAT=0.46,
      CONDUCTIVITY=45.8,
      DENSITY=7850.0,
      EMISSIVITY=0.95/
&MATL ID='INSULATION',
      FYI='Isolatek BLAZE-SHIELD DC/F - WTC FDS5 Validation',
      SPECIFIC_HEAT_RAMP='INSULATION_SPECIFIC_HEAT_RAMP',
      CONDUCTIVITY_RAMP='INSULATION_CONDUCTIVITY_RAMP',
      DENSITY=208.0/
&RAMP ID='INSULATION_CONDUCTIVITY_RAMP', T=20.0, F=0.05/
&RAMP ID='INSULATION_CONDUCTIVITY_RAMP', T=377.0, F=0.1/
&RAMP ID='INSULATION_CONDUCTIVITY_RAMP', T=677.0, F=0.2/
&RAMP ID='INSULATION_SPECIFIC_HEAT_RAMP', T=20.0, F=0.8/
&RAMP ID='INSULATION_SPECIFIC_HEAT_RAMP', T=677.0, F=2.0/
&MATL ID='CONCRETE',
      FYI='NBSIR 88-3752 - ATF NIST Multi-Floor Validation',
      SPECIFIC_HEAT=1.04,
      CONDUCTIVITY=1.8,
      DENSITY=2280.0/
&MATL ID='GLASS',
      FYI='SFPE Handbook of Fire Protection Engineering, Appendix B, Table B.7',
      SPECIFIC_HEAT=0.84,
      CONDUCTIVITY=0.78,
      DENSITY=2700.0/

&SURF ID='parete_metallica',
      COLOR='GRAY 60',
      DEFAULT=.TRUE.,
      BACKING='VOID',
      MATL_ID(1,1)='STEEL',
      MATL_ID(2,1)='INSULATION',
      MATL_ID(3,1)='STEEL',
      MATL_MASS_FRACTION(1,1)=1.0,
      MATL_MASS_FRACTION(2,1)=1.0,
      MATL_MASS_FRACTION(3,1)=1.0,
      THICKNESS(1:3)=3.0E-3,0.15,3.0E-3/
&SURF ID='fire1',
      COLOR='RED',
      HRRPUA=1000.0,
      RAMP_Q='fire1_RAMP_Q',
      TMP_FRONT=300.0/
&RAMP ID='fire1_RAMP_Q', T=0.0, F=0.0/
&RAMP ID='fire1_RAMP_Q', T=5.0, F=4.8E-3/
&RAMP ID='fire1_RAMP_Q', T=10.0, F=0.019/
&RAMP ID='fire1_RAMP_Q', T=15.0, F=0.0428/
&RAMP ID='fire1_RAMP_Q', T=20.0, F=0.076/
&RAMP ID='fire1_RAMP_Q', T=25.0, F=0.1188/
&RAMP ID='fire1_RAMP_Q', T=30.0, F=0.171/
&RAMP ID='fire1_RAMP_Q', T=35.0, F=0.2328/
&RAMP ID='fire1_RAMP_Q', T=40.0, F=0.304/
&RAMP ID='fire1_RAMP_Q', T=45.0, F=0.3848/
&RAMP ID='fire1_RAMP_Q', T=50.0, F=0.475/
&RAMP ID='fire1_RAMP_Q', T=55.0, F=0.5748/
&RAMP ID='fire1_RAMP_Q', T=60.0, F=0.684/
&RAMP ID='fire1_RAMP_Q', T=65.0, F=0.8028/
&RAMP ID='fire1_RAMP_Q', T=70.0, F=0.931/
&RAMP ID='fire1_RAMP_Q', T=75.0, F=1.0688/
&RAMP ID='fire1_RAMP_Q', T=80.0, F=1.216/
&RAMP ID='fire1_RAMP_Q', T=85.0, F=1.3728/
&RAMP ID='fire1_RAMP_Q', T=90.0, F=1.3728/
&RAMP ID='fire1_RAMP_Q', T=95.0, F=1.3728/
! ... 21 like lines cut
&SURF ID='fire2',
      COLOR='RED',
      HRRPUA=1000.0,
      RAMP_Q='fire2_RAMP_Q',
      TMP_FRONT=300.0/
&RAMP ID='fire2_RAMP_Q', T=0.0, F=0.0/
&RAMP ID='fire2_RAMP_Q', T=5.0, F=0.0/
&RAMP ID='fire2_RAMP_Q', T=10.0, F=0.0/
&RAMP ID='fire2_RAMP_Q', T=15.0, F=0.0/
&RAMP ID='fire2_RAMP_Q', T=20.0, F=0.0/
&RAMP ID='fire2_RAMP_Q', T=25.0, F=0.0/
&RAMP ID='fire2_RAMP_Q', T=30.0, F=0.0/
&RAMP ID='fire2_RAMP_Q', T=35.0, F=0.0/
&RAMP ID='fire2_RAMP_Q', T=40.0, F=0.0/
&RAMP ID='fire2_RAMP_Q', T=45.0, F=0.0/
&RAMP ID='fire2_RAMP_Q', T=50.0, F=0.0/
&RAMP ID='fire2_RAMP_Q', T=55.0, F=0.0/
&RAMP ID='fire2_RAMP_Q', T=60.0, F=0.0/
&RAMP ID='fire2_RAMP_Q', T=65.0, F=0.0/
&RAMP ID='fire2_RAMP_Q', T=70.0, F=0.0/
&RAMP ID='fire2_RAMP_Q', T=75.0, F=0.0/
&RAMP ID='fire2_RAMP_Q', T=80.0, F=0.0/
&RAMP ID='fire2_RAMP_Q', T=85.0, F=0.0/
&RAMP ID='fire2_RAMP_Q', T=90.0, F=0.1663/
&RAMP ID='fire2_RAMP_Q', T=95.0, F=0.342/
! ... 21 like lines cut
&SURF ID='fire3',
      COLOR='RED',
      HRRPUA=1000.0,
      RAMP_Q='fire3_RAMP_Q',
      TMP_FRONT=300.0/
&RAMP ID='fire3_RAMP_Q', T=0.0, F=0.0/
&RAMP ID='fire3_RAMP_Q', T=5.0, F=0.0/
&RAMP ID='fire3_RAMP_Q', T=10.0, F=0.0/
&RAMP ID='fire3_RAMP_Q', T=15.0, F=0.0/
&RAMP ID='fire3_RAMP_Q', T=20.0, F=0.0/
&RAMP ID='fire3_RAMP_Q', T=25.0, F=0.0/
&RAMP ID='fire3_RAMP_Q', T=30.0, F=0.0/
&RAMP ID='fire3_RAMP_Q', T=35.0, F=0.0/
&RAMP ID='fire3_RAMP_Q', T=40.0, F=0.0/
&RAMP ID='fire3_RAMP_Q', T=45.0, F=0.0/
&RAMP ID='fire3_RAMP_Q', T=50.0, F=0.0/
&RAMP ID='fire3_RAMP_Q', T=55.0, F=0.0/
&RAMP ID='fire3_RAMP_Q', T=60.0, F=0.0/
&RAMP ID='fire3_RAMP_Q', T=65.0, F=0.0/
&RAMP ID='fire3_RAMP_Q', T=70.0, F=0.0/
&RAMP ID='fire3_RAMP_Q', T=75.0, F=0.0/
&RAMP ID='fire3_RAMP_Q', T=80.0, F=0.0/
&RAMP ID='fire3_RAMP_Q', T=85.0, F=0.0/
&RAMP ID='fire3_RAMP_Q', T=90.0, F=0.0/
&RAMP ID='fire3_RAMP_Q', T=95.0, F=0.0/
! ... 21 like lines cut
&SURF ID='fire4',
      COLOR='RED',
      HRRPUA=1000.0,
      RAMP_Q='fire4_RAMP_Q',
      TMP_FRONT=300.0/
&RAMP ID='fire4_RAMP_Q', T=0.0, F=0.0/
&RAMP ID='fire4_RAMP_Q', T=5.0, F=0.0/
&RAMP ID='fire4_RAMP_Q', T=10.0, F=0.0/
&RAMP ID='fire4_RAMP_Q', T=15.0, F=0.0/
&RAMP ID='fire4_RAMP_Q', T=20.0, F=0.0/
&RAMP ID='fire4_RAMP_Q', T=25.0, F=0.0/
&RAMP ID='fire4_RAMP_Q', T=30.0, F=0.0/
&RAMP ID='fire4_RAMP_Q', T=35.0, F=0.0/
&RAMP ID='fire4_RAMP_Q', T=40.0, F=0.0/
&RAMP ID='fire4_RAMP_Q', T=45.0, F=0.0/
&RAMP ID='fire4_RAMP_Q', T=50.0, F=0.0/
&RAMP ID='fire4_RAMP_Q', T=55.0, F=0.0/
&RAMP ID='fire4_RAMP_Q', T=60.0, F=0.0/
&RAMP ID='fire4_RAMP_Q', T=65.0, F=0.0/
&RAMP ID='fire4_RAMP_Q', T=70.0, F=0.0/
&RAMP ID='fire4_RAMP_Q', T=75.0, F=0.0/
&RAMP ID='fire4_RAMP_Q', T=80.0, F=0.0/
&RAMP ID='fire4_RAMP_Q', T=85.0, F=0.0/
&RAMP ID='fire4_RAMP_Q', T=90.0, F=0.0/
&RAMP ID='fire4_RAMP_Q', T=95.0, F=0.0/
! ... 13 like lines cut
&SURF ID='ADIABATIC',
      COLOR='GRAY 80',
      ADIABATIC=.TRUE./
&SURF ID='muratura',
      COLOR='GRAY 60',
      BACKING='VOID',
      MATL_ID(1,1)='CONCRETE',
      MATL_MASS_FRACTION(1,1)=1.0,
      THICKNESS(1)=0.1/
&SURF ID='finestra',
      RGB=204,255,255,
      TRANSPARENCY=0.658824,
      BACKING='VOID',
      MATL_ID(1,1:2)='GLASS','STEEL',
      MATL_MASS_FRACTION(1,1:2)=0.9,0.1,
      THICKNESS(1)=0.025/

&OBST ID='Obstruction', XB=326.0,326.2,-61.116448,-21.08661,0.0,6.243637, SURF_ID='parete_metallica'/ 
&OBST ID='Obstruction', XB=326.1,326.3,-21.3,-21.1,0.0,9.2, SURF_ID='parete_metallica'/ 
&OBST ID='Obstruction', XB=326.1,332.1,-21.5,-21.3,0.0,6.2, SURF_ID='parete_metallica'/ 
&OBST ID='Obstruction', XB=326.3,326.5,-21.3,-21.1,0.0,6.5, SURF_ID='parete_metallica'/ 
&OBST ID='Obstruction', XB=326.5,326.9,-21.3,-21.1,0.0,6.6, SURF_ID='parete_metallica'/ 
&OBST ID='Obstruction', XB=326.9,327.2,-21.3,-21.1,0.0,6.7, SURF_ID='parete_metallica'/ 
&OBST ID='Obstruction', XB=327.2,327.6,-21.3,-21.1,0.0,6.8, SURF_ID='parete_metallica'/ 
&OBST ID='Obstruction', XB=327.6,328.0,-21.3,-21.1,0.0,6.9, SURF_ID='parete_metallica'/ 
&OBST ID='Obstruction', XB=328.0,328.3,-21.3,-21.1,0.0,7.0, SURF_ID='parete_metallica'/ 
&OBST ID='Obstruction', XB=328.3,328.7,-21.3,-21.1,0.0,7.1, SURF_ID='parete_metallica'/ 
&OBST ID='Obstruction', XB=328.7,329.1,-21.3,-21.1,0.0,7.2, SURF_ID='parete_metallica'/ 
&OBST ID='Obstruction', XB=329.1,329.4,-21.3,-21.1,0.0,7.3, SURF_ID='parete_metallica'/ 
&OBST ID='Obstruction', XB=329.4,329.8,-21.3,-21.1,0.0,7.4, SURF_ID='parete_metallica'/ 
&OBST ID='Obstruction', XB=329.8,330.2,-21.3,-21.1,0.0,7.5, SURF_ID='parete_metallica'/ 
&OBST ID='Obstruction', XB=330.2,330.5,-21.3,-21.1,0.0,7.6, SURF_ID='parete_metallica'/ 
&OBST ID='Obstruction', XB=330.5,330.9,-21.3,-21.1,0.0,7.7, SURF_ID='parete_metallica'/ 
&OBST ID='Obstruction', XB=330.9,331.3,-21.3,-21.1,0.0,7.8, SURF_ID='parete_metallica'/ 
&OBST ID='Obstruction', XB=331.3,331.6,-21.3,-21.1,0.0,7.9, SURF_ID='parete_metallica'/ 
&OBST ID='Obstruction', XB=331.6,332.0,-21.3,-21.1,0.0,8.0, SURF_ID='parete_metallica'/ 
&OBST ID='Obstruction', XB=332.0,332.1,-21.3,-21.1,0.0,8.1, SURF_ID='parete_metallica'/ 
! ... 160 like lines cut
&OBST ID='Obstruction', XB=326.7,327.7,-23.9,-22.9,0.0,2.0, SURF_ID='ADIABATIC'/ 
&OBST ID='Obstruction', XB=327.8,328.8,-23.9,-22.9,0.0,2.0, SURF_ID='ADIABATIC'/ 
&OBST ID='Obstruction', XB=327.8,328.8,-25.0,-24.0,0.0,2.0, SURF_ID='ADIABATIC'/ 
&OBST ID='Obstruction', XB=328.9,329.9,-23.9,-22.9,0.0,2.0, SURF_ID='ADIABATIC'/ 
&OBST ID='Obstruction', XB=327.8,328.8,-22.8,-21.8,0.0,2.0, SURF_ID='ADIABATIC'/ 
&OBST ID='Obstruction', XB=386.3,387.1,-61.1,-21.1,6.3,6.7, PERMIT_HOLE=.FALSE., SURF_ID='parete_metallica'/ 
&OBST ID='Obstruction', XB=387.9,388.7,-61.1,-21.1,6.7,7.1, PERMIT_HOLE=.FALSE., SURF_ID='parete_metallica'/ 
&OBST ID='Obstruction', XB=389.5,390.3,-61.1,-21.1,7.1,7.5, PERMIT_HOLE=.FALSE., SURF_ID='parete_metallica'/ 
&OBST ID='Obstruction', XB=390.7,391.5,-61.1,-21.1,7.5,7.9, PERMIT_HOLE=.FALSE., SURF_ID='parete_metallica'/ 
&OBST ID='Obstruction', XB=392.3,393.1,-61.1,-21.1,7.9,8.3, PERMIT_HOLE=.FALSE., SURF_ID='parete_metallica'/ 
&OBST ID='Obstruction', XB=393.9,394.3,-61.1,-21.1,8.3,8.7, PERMIT_HOLE=.FALSE., SURF_ID='parete_metallica'/ 
&OBST ID='Obstruction', XB=395.1,395.9,-61.1,-21.1,8.7,9.1, PERMIT_HOLE=.FALSE., SURF_ID='parete_metallica'/ 
&OBST ID='Obstruction', XB=385.9,386.3,-61.1,-21.1,6.3,6.3, PERMIT_HOLE=.FALSE., SURF_ID='parete_metallica'/ 
&OBST ID='Obstruction', XB=387.1,387.9,-61.1,-21.1,6.7,6.7, PERMIT_HOLE=.FALSE., SURF_ID='parete_metallica'/ 
&OBST ID='Obstruction', XB=388.7,389.5,-61.1,-21.1,7.1,7.1, PERMIT_HOLE=.FALSE., SURF_ID='parete_metallica'/ 
&OBST ID='Obstruction', XB=390.3,390.7,-61.1,-21.1,7.5,7.5, PERMIT_HOLE=.FALSE., SURF_ID='parete_metallica'/ 
&OBST ID='Obstruction', XB=391.5,392.3,-61.1,-21.1,7.9,7.9, PERMIT_HOLE=.FALSE., SURF_ID='parete_metallica'/ 
&OBST ID='Obstruction', XB=393.1,393.9,-61.1,-21.1,8.3,8.3, PERMIT_HOLE=.FALSE., SURF_ID='parete_metallica'/ 
&OBST ID='Obstruction', XB=394.3,395.1,-61.1,-21.1,8.7,8.7, PERMIT_HOLE=.FALSE., SURF_ID='parete_metallica'/ 
&OBST ID='Obstruction', XB=395.9,396.3,-61.1,-21.1,9.1,9.1, PERMIT_HOLE=.FALSE., SURF_ID='parete_metallica'/ 
&OBST ID='Obstruction', XB=396.3,396.3,-61.1,-21.1,8.7,9.1, PERMIT_HOLE=.FALSE., SURF_ID='parete_metallica'/ 
&OBST ID='Obstruction', XB=396.3,397.1,-61.1,-21.1,6.3,6.7, PERMIT_HOLE=.FALSE., SURF_ID='parete_metallica'/ 
&OBST ID='Obstruction', XB=397.9,398.7,-61.1,-21.1,6.7,7.1, PERMIT_HOLE=.FALSE., SURF_ID='parete_metallica'/ 
&OBST ID='Obstruction', XB=399.5,400.3,-61.1,-21.1,7.1,7.5, PERMIT_HOLE=.FALSE., SURF_ID='parete_metallica'/ 
&OBST ID='Obstruction', XB=400.7,401.5,-61.1,-21.1,7.5,7.9, PERMIT_HOLE=.FALSE., SURF_ID='parete_metallica'/ 
! ... 262 like lines cut
&OBST ID='pavimento', XB=326.1,332.1,-26.3,-21.2,-0.1,0.0, SURF_ID='muratura'/ 
&OBST ID='pavimento', XB=326.1,346.3,-37.5,-26.3,-0.1,-0.1, SURF_ID='muratura'/ 
&OBST ID='pavimento', XB=332.1,341.1,-21.3,-21.1,-0.1,-0.1, SURF_ID='muratura'/ 
&OBST ID='pavimento', XB=332.1,346.3,-26.3,-21.3,-0.1,-0.1, SURF_ID='muratura'/ 
&OBST ID='pavimento', XB=326.1,346.3,-49.5,-37.5,-0.1,-0.1, SURF_ID='muratura'/ 
&OBST ID='pavimento', XB=326.1,346.3,-61.3,-49.5,-0.1,-0.1, SURF_ID='muratura'/ 
&OBST ID='pavimento', XB=346.3,379.9,-61.1,-21.1,-0.1,-0.1, SURF_ID='muratura'/ 
&OBST ID='pavimento', XB=379.9,406.3,-61.1,-21.1,-0.1,-0.1, SURF_ID='muratura'/ 
&OBST ID='Obstruction', XB=397.9,399.1,-61.5,-61.1,-0.1,2.3, SURF_ID='parete_metallica', CTRL_ID='invert'/ 
&OBST ID='finestra', XB=406.3,406.3,-57.1,-45.5,6.7,8.7, SURF_ID='finestra', CTRL_ID='invert'/ 
&OBST ID='finestra', XB=406.3,406.3,-37.1,-25.5,6.7,8.7, SURF_ID='finestra', CTRL_ID='invert'/ 
&OBST ID='finestra', XB=386.3,386.3,-57.1,-45.5,6.7,8.7, SURF_ID='finestra', CTRL_ID='invert'/ 
&OBST ID='finestra', XB=386.3,386.3,-37.1,-25.5,6.7,8.7, SURF_ID='finestra', CTRL_ID='invert'/ 
&OBST ID='finestra', XB=366.3,366.3,-37.1,-25.5,6.7,8.7, SURF_ID='finestra', CTRL_ID='invert'/ 
&OBST ID='finestra', XB=366.3,366.3,-57.1,-45.5,6.7,8.7, SURF_ID='finestra', CTRL_ID='invert'/ 
&OBST ID='finestra', XB=346.1,346.3,-49.5,-45.5,6.7,8.7, SURF_ID='finestra', CTRL_ID='invert'/ 
&OBST ID='finestra', XB=346.1,346.3,-57.1,-49.5,6.7,8.7, SURF_ID='finestra', CTRL_ID='invert'/ 
&OBST ID='finestra', XB=346.1,346.3,-37.1,-26.3,6.7,8.7, SURF_ID='finestra', CTRL_ID='invert'/ 
&OBST ID='finestra', XB=346.1,346.3,-26.3,-25.5,6.7,8.7, SURF_ID='finestra', CTRL_ID='invert'/ 
&OBST ID='finestra', XB=326.1,326.3,-26.3,-25.5,6.7,8.7, SURF_ID='finestra', CTRL_ID='invert'/ 
&OBST ID='finestra', XB=326.1,326.3,-37.1,-26.3,6.7,8.7, SURF_ID='finestra', CTRL_ID='invert'/ 
&OBST ID='finestra', XB=326.1,326.3,-49.5,-45.5,6.7,8.7, SURF_ID='finestra', CTRL_ID='invert'/ 
&OBST ID='finestra', XB=326.1,326.3,-57.1,-49.5,6.7,8.7, SURF_ID='finestra', CTRL_ID='invert'/ 
&OBST ID='finestra', XB=396.3,396.3,-57.1,-45.5,6.7,8.7, SURF_ID='finestra', CTRL_ID='invert'/ 
&OBST ID='finestra', XB=396.3,396.3,-37.1,-25.5,6.7,8.7, SURF_ID='finestra', CTRL_ID='invert'/ 
&OBST ID='finestra', XB=376.3,376.3,-57.1,-45.5,6.7,8.7, SURF_ID='finestra', CTRL_ID='invert'/ 
&OBST ID='finestra', XB=376.3,376.3,-37.1,-25.5,6.7,8.7, SURF_ID='finestra', CTRL_ID='invert'/ 
&OBST ID='finestra', XB=356.3,356.3,-57.1,-45.5,6.7,8.7, SURF_ID='finestra', CTRL_ID='invert'/ 
&OBST ID='finestra', XB=356.3,356.3,-37.1,-25.5,6.7,8.7, SURF_ID='finestra', CTRL_ID='invert'/ 
! ... 4 like lines cut
&OBST ID='finestra', XB=406.3,406.3,-57.1,-45.5,6.3,6.7, SURF_ID='finestra'/ 
&OBST ID='finestra', XB=406.3,406.3,-37.1,-25.5,6.3,6.7, SURF_ID='finestra'/ 
&OBST ID='finestra', XB=406.3,406.3,-61.1,-57.1,6.3,8.7, SURF_ID='finestra'/ 
&OBST ID='finestra', XB=406.3,406.3,-45.5,-37.1,6.3,8.7, SURF_ID='finestra'/ 
&OBST ID='finestra', XB=406.3,406.3,-25.5,-21.1,6.3,8.7, SURF_ID='finestra'/ 
&OBST ID='finestra', XB=386.3,386.3,-57.1,-45.5,6.3,6.7, SURF_ID='finestra'/ 
&OBST ID='finestra', XB=386.3,386.3,-37.1,-25.5,6.3,6.7, SURF_ID='finestra'/ 
&OBST ID='finestra', XB=386.3,386.3,-61.1,-57.1,6.3,8.7, SURF_ID='finestra'/ 
&OBST ID='finestra', XB=386.3,386.3,-45.5,-37.1,6.3,8.7, SURF_ID='finestra'/ 
&OBST ID='finestra', XB=386.3,386.3,-25.5,-21.1,6.3,8.7, SURF_ID='finestra'/ 
&OBST ID='finestra', XB=366.3,366.3,-57.1,-45.5,6.3,6.7, SURF_ID='finestra'/ 
&OBST ID='finestra', XB=366.3,366.3,-37.1,-25.5,6.3,6.7, SURF_ID='finestra'/ 
&OBST ID='finestra', XB=366.3,366.3,-61.1,-57.1,6.3,8.7, SURF_ID='finestra'/ 
&OBST ID='finestra', XB=366.3,366.3,-45.5,-37.1,6.3,8.7, SURF_ID='finestra'/ 
&OBST ID='finestra', XB=366.3,366.3,-25.5,-21.1,6.3,8.7, SURF_ID='finestra'/ 
&OBST ID='finestra', XB=346.1,346.3,-37.1,-26.3,6.1,6.7, SURF_ID='finestra'/ 
&OBST ID='finestra', XB=346.1,346.3,-37.5,-37.1,6.1,8.7, SURF_ID='finestra'/ 
&OBST ID='finestra', XB=346.1,346.3,-37.1,-26.3,8.7,8.7, SURF_ID='finestra'/ 
&OBST ID='finestra', XB=346.1,346.3,-26.3,-25.5,6.1,6.7, SURF_ID='finestra'/ 
&OBST ID='finestra', XB=346.1,346.3,-25.5,-21.1,6.1,8.7, SURF_ID='finestra'/ 
! ... 46 like lines cut

&HOLE ID='Hole', XB=275.542111,276.53157,-34.017161,-31.400301,0.0,3.0/ 
&HOLE ID='Hole_stab', XB=383.5,384.3,-61.54,-60.7,-0.14,0.3/ 

&VENT ID='Mesh Vent: MESH [ZMAX]', SURF_ID='OPEN', XB=326.11661,407.5,-61.5,-21.08661,10.3,10.3/ 
&VENT ID='Vent', SURF_ID='OPEN', XB=407.5,407.5,-61.5,-21.08661,-0.1,10.3/ 
&VENT ID='fire1', SURF_ID='fire1', XB=327.8,328.8,-23.9,-22.9,2.0,2.0/ 
&VENT ID='fire2', SURF_ID='fire2', XB=327.8,328.8,-25.0,-24.0,2.0,2.0/ 
&VENT ID='fire3', SURF_ID='fire3', XB=326.7,327.7,-23.9,-22.9,2.0,2.0/ 
&VENT ID='fire4', SURF_ID='fire4', XB=327.8,328.8,-22.8,-21.8,2.0,2.0/ 
&VENT ID='stab', SURF_ID='OPEN', XB=383.5,384.3,-61.5,-61.5,0.1,0.5/ 
&VENT ID='open', SURF_ID='OPEN', XB=397.9,399.1,-61.5,-61.5,-1.776357E-15,2.3/ 

&BNDF QUANTITY='INCIDENT HEAT FLUX'/
&BNDF QUANTITY='NET HEAT FLUX'/
&BNDF QUANTITY='RADIATIVE HEAT FLUX'/
&BNDF QUANTITY='WALL TEMPERATURE'/

&SLCF QUANTITY='INTEGRATED INTENSITY', PBX=328.3/
&SLCF QUANTITY='TEMPERATURE', PBX=328.3/
&SLCF QUANTITY='VISIBILITY', PBX=328.3/
&SLCF QUANTITY='INTEGRATED INTENSITY', PBY=-23.4/
&SLCF QUANTITY='TEMPERATURE', PBY=-23.4/
&SLCF QUANTITY='VISIBILITY', PBY=-23.4/
&SLCF QUANTITY='VOLUME FRACTION', SPEC_ID='CARBON MONOXIDE', PBZ=2.0/
&SLCF QUANTITY='INTEGRATED INTENSITY', PBZ=2.0/
&SLCF QUANTITY='TEMPERATURE', PBZ=2.0/
&SLCF QUANTITY='VISIBILITY', PBZ=2.0/
&SLCF QUANTITY='TEMPERATURE', PBY=-21.4/
&SLCF QUANTITY='TEMPERATURE', PBX=326.4/
&SLCF QUANTITY='VOLUME FRACTION', SPEC_ID='CARBON MONOXIDE', PBZ=1.8/
&SLCF QUANTITY='INTEGRATED INTENSITY', PBZ=1.8/
&SLCF QUANTITY='TEMPERATURE', PBZ=1.8/
&SLCF QUANTITY='VISIBILITY', PBZ=1.8/
&SLCF QUANTITY='TEMPERATURE', PBY=-51.2/
&SLCF QUANTITY='VISIBILITY', PBY=-51.2/
&SLCF QUANTITY='VOLUME FRACTION', SPEC_ID='CARBON MONOXIDE', PBY=-51.2/
&SLCF QUANTITY='VELOCITY', VECTOR=.TRUE., PBY=-51.2/
&SLCF QUANTITY='VELOCITY', VECTOR=.TRUE., PBY=-32.2/


&TAIL /
